LTspice 24.0.12 for Windows
Circuit: * C:\Users\sahin\OneDrive\Documents\LTspice\EEE 313 - Lab 2\beta_measuring.asc
Start Time: Sun Oct 13 17:23:46 2024
Warning: Multiple definitions of model "2scr375p" Type: BJT
Warning: Multiple definitions of model "bc857b" Type: BJT
Warning: Multiple definitions of model "bc847c" Type: BJT
Warning: Multiple definitions of model "bc847b" Type: BJT
solver = Normal
Maximum thread count: 16
tnom = 27
temp = 27
method = modified trap
Direct Newton iteration for .op point succeeded.
Total elapsed time: 0.071 seconds.

