LTspice 24.0.12 for Windows
Circuit: * C:\Users\sahin\OneDrive\Documents\LTspice\EEE 313 - Lab 2\lab2temp.asc
Start Time: Thu Oct 10 08:50:50 2024
Warning: Multiple definitions of model "2scr375p" Type: BJT
Warning: Multiple definitions of model "bc857b" Type: BJT
Warning: Multiple definitions of model "bc847c" Type: BJT
Warning: Multiple definitions of model "bc847b" Type: BJT
solver = Normal
Maximum thread count: 16
tnom = 27
temp = 27
method = modified trap
c2: Increased Cpar to 3.3e-11
Direct Newton iteration for .op point succeeded.
Total elapsed time: 1.529 seconds.

