LTspice 24.0.12 for Windows
Circuit: * C:\Users\sahin\OneDrive\Documents\LTspice\Project\first.asc
Start Time: Thu Nov 14 20:46:44 2024
Warning: Multiple definitions of model "2scr375p" Type: BJT
Warning: Multiple definitions of model "bc857b" Type: BJT
Warning: Multiple definitions of model "bc847c" Type: BJT
Warning: Multiple definitions of model "bc847b" Type: BJT
solver = Normal
Maximum thread count: 16
tnom = 27
temp = 27
method = modified trap
Ignoring empty pin current: Ix(u1:1)
Ignoring empty pin current: Ix(u1:2)
Ignoring empty pin current: Ix(u1:99)
Ignoring empty pin current: Ix(u1:50)
Ignoring empty pin current: Ix(u1:28)
Ignoring empty pin current: Ix(x1:v+)
Ignoring empty pin current: Ix(x1:v-)
Ignoring empty pin current: Ix(x1:vo)
Ignoring empty pin current: Ix(x2:v+)
Ignoring empty pin current: Ix(x2:v-)
Ignoring empty pin current: Ix(x2:vo)
Ignoring empty pin current: Ix(x3:v+)
Ignoring empty pin current: Ix(x3:v-)
Ignoring empty pin current: Ix(x3:vo)
Ignoring empty pin current: Ix(x4:v+)
Ignoring empty pin current: Ix(x4:v-)
Ignoring empty pin current: Ix(x4:vo)
Early termination of direct N-R iteration.
Direct Newton iteration failed to find .op point.  (Use ".option noopiter" to skip.)
Starting Gmin stepping
Gmin = 10
Gmin = 1.07374
vernier = 0.5
vernier = 0.25
vernier = 0.125
Gmin = 1.02385
vernier = 0.0625
vernier = 0.03125
vernier = 0.015625
Gmin = 1.01955
vernier = 0.0078125
vernier = 0.00390625
Gmin = 1.0126
vernier = 0.00195312
vernier = 0.00260417
vernier = 0.00130208
Gmin = 1.00915
vernier = 0.00173611
vernier = 0.000868055
Gmin = 1.00685
vernier = 0.00115741
vernier = 0.000578703
Gmin = 1.0054
vernier = 0.000771604
vernier = 0.000578703
vernier = 0.000434027
Gmin = 1.00443
vernier = 0.000578703
vernier = 0.000434027
Gmin = 0
Gmin = 0
Gmin stepping failed

Starting source stepping with srcstepmethod=0
Source Step = 3.0303%
Source Step = 33.3333%
Source Step = 63.6364%
Source Step = 88.6364%
Source Step = 96.2121%
Source stepping succeeded in finding the operating point.

Total elapsed time: 0.476 seconds.

