LTspice 24.0.12 for Windows
Circuit: * C:\Users\sahin\OneDrive\Documents\LTspice\EEE 313 - Lab 3\Draft2.asc
Start Time: Tue Nov 19 20:03:06 2024
solver = Normal
Maximum thread count: 16
tnom = 27
temp = 27
method = modified trap
.OP point found by inspection.
Total elapsed time: 0.031 seconds.

