LTspice 24.0.12 for Windows
Circuit: * C:\Users\sahin\OneDrive\Documents\LTspice\EEE 313 - Lab 4\second.asc
Start Time: Sun Dec  1 23:10:20 2024
Warning: Multiple definitions of model "2scr375p" Type: BJT
Warning: Multiple definitions of model "bc857b" Type: BJT
Warning: Multiple definitions of model "bc847c" Type: BJT
Warning: Multiple definitions of model "bc847b" Type: BJT
solver = Normal
Maximum thread count: 16
tnom = 27
temp = 27
method = modified trap
Direct Newton iteration for .op point succeeded.
Total elapsed time: 0.102 seconds.

